
  -OEChem-06302511043D

  9  9  0     0  0  0  0  0  0999 V2000
   -1.9540    7.1720   17.3040 C   0  0  0  0  0  0  0  0  0  0  0  0
   -3.1730    6.9120   16.7240 C   0  0  0  0  0  0  0  0  0  0  0  0
   -3.3760    5.8560   15.8480 C   0  0  0  0  0  0  0  0  0  0  0  0
   -2.3520    4.8690   15.7140 C   0  0  0  0  0  0  0  0  0  0  0  0
   -1.1280    5.0340   16.3620 C   0  0  0  0  0  0  0  0  0  0  0  0
   -0.9340    6.2050   17.1530 C   0  0  0  0  0  0  0  0  0  0  0  0
   -1.8500    8.3110   18.2090 C   0  0  0  0  0  0  0  0  0  0  0  0
   -2.7760    9.2840   18.4800 N   0  3  0  0  0  0  0  0  0  0  0  0
   -0.5870    8.6090   18.7270 N   0  0  0  0  0  0  0  0  0  0  0  0
  1  2  2  0  0  0  0
  1  6  1  0  0  0  0
  1  7  1  0  0  0  0
  2  3  1  0  0  0  0
  3  4  2  0  0  0  0
  4  5  1  0  0  0  0
  5  6  2  0  0  0  0
  7  8  2  0  0  0  0
  7  9  1  0  0  0  0
M  CHG  1   8   1
M  END
$$$$
